ercot/case8/dsostub/rtmcase.py
from numpy import array

def rtmcase():
    ppc = {"version": '2'}

    ppc["baseMVA"] = 100.0

    ## bus data
    # bus_i type Pd Qd Gs Bs area Vm Va baseKV zone Vmax Vmin
    ppc["bus"] = array([
     [1.0, 3.0, 7184.397562188318, 972.4485988565704, 0.0, 5000.0, 1.0, 1.0, 0.0, 345.0, 2.0, 1.1, 0.9, 8.00000000017923, 0.0, 0.0, 0.0],
     [2.0, 2.0, 7731.361160245716, 1046.1015002535294, 0.0, 4000.0, 1.0, 1.0, 0.0, 345.0, 1.0, 1.1, 0.9, 8.000000000235358, 0.0, 0.0, 0.0],
     [3.0, 2.0, 162.26669649637847, 21.951184747698953, 0.0, 70.0, 1.0, 1.0, 0.0, 345.0, 4.0, 1.1, 0.9, 8.000000000189182, 0.0, 0.0, 0.0],
     [4.0, 2.0, 2098.0749514051486, 283.9496980132714, 0.0, 2500.0, 1.0, 1.0, 0.0, 345.0, 4.0, 1.1, 0.9, 8.000000000233234, 0.0, 0.0, 0.0],
     [5.0, 2.0, 3924.161589445528, 530.9627383416959, 0.0, 3500.0, 1.0, 1.0, 0.0, 345.0, 3.0, 1.1, 0.9, 8.000000000229905, 0.0, 0.0, 0.0],
     [6.0, 2.0, 232.13928666584383, 31.410191140871696, 0.0, 80.0, 1.0, 1.0, 0.0, 345.0, 3.0, 1.1, 0.9, 8.00000000022714, 0.0, 0.0, 0.0],
     [7.0, 2.0, 2650.6694302631404, 358.79809321224093, 0.0, 1100.0, 1.0, 1.0, 0.0, 345.0, 3.0, 1.1, 0.9, 8.000000000201052, 0.0, 0.0, 0.0],
     [8.0, 1.0, 56.56625714786219, 7.653219656987468, 0.0, -100.0, 1.0, 1.0, 0.0, 345.0, 4.0, 1.1, 0.9, 8.000000000236904, 0.0, 0.0, 0.0]
    ])

    ppc["gen"] = array([
     [1.0, 1998.0000000055534, 0.0, 6567.0, -6567.0, 1.0, 19978.8, 1.0, 19978.8, 1998.0, 0.0, 0.0, 0.0, 0.0, 0.0, 0.0, 0.0, 0.0, 0.0, 0.0, 0.0, 0.0, 0.0, 0.0, 0.0],
     [1.0, 5832.400000013631, 0.0, 3834.0, -3834.0, 1.0, 11664.8, 1.0, 11664.8, 5832.4, 0.0, 0.0, 0.0, 0.0, 0.0, 0.0, 0.0, 0.0, 0.0, 0.0, 0.0, 0.0, 0.0, 0.0, 0.0],
     [1.0, 1954.5173598236647, 0.0, 798.7, -798.7, 1.0, 2430.0, 1.0, 2430.0, 1215.0, 0.0, 0.0, 0.0, 0.0, 0.0, 0.0, 0.0, 0.0, 0.0, 0.0, 0.0, 0.0, 0.0, 0.0, 0.0],
     [2.0, 2076.000000003092, 0.0, 6824.0, -6824.0, 1.0, 20761.7, 1.0, 20761.7, 2076.0, 0.0, 0.0, 0.0, 0.0, 0.0, 0.0, 0.0, 0.0, 0.0, 0.0, 0.0, 0.0, 0.0, 0.0, 0.0],
     [2.0, 1595.0000000136308, 0.0, 1048.6, -1048.6, 1.0, 3190.3, 1.0, 3190.3, 1595.0, 0.0, 0.0, 0.0, 0.0, 0.0, 0.0, 0.0, 0.0, 0.0, 0.0, 0.0, 0.0, 0.0, 0.0, 0.0],
     [2.0, 2389.35820431008, 0.0, 890.3, -890.3, 1.0, 2708.6, 1.0, 2708.6, 1354.3, 0.0, 0.0, 0.0, 0.0, 0.0, 0.0, 0.0, 0.0, 0.0, 0.0, 0.0, 0.0, 0.0, 0.0, 0.0],
     [3.0, 8.000000003058101, 0.0, 26.3, -26.3, 1.0, 80.0, 1.0, 80.0, 8.0, 0.0, 0.0, 0.0, 0.0, 0.0, 0.0, 0.0, 0.0, 0.0, 0.0, 0.0, 0.0, 0.0, 0.0, 0.0],
     [3.0, 360.00000001363077, 0.0, 236.7, -236.7, 1.0, 720.0, 1.0, 720.0, 360.0, 0.0, 0.0, 0.0, 0.0, 0.0, 0.0, 0.0, 0.0, 0.0, 0.0, 0.0, 0.0, 0.0, 0.0, 0.0],
     [4.0, 343.80000000305813, 0.0, 1130.1, -1130.1, 1.0, 3438.2, 1.0, 3438.2, 343.8, 0.0, 0.0, 0.0, 0.0, 0.0, 0.0, 0.0, 0.0, 0.0, 0.0, 0.0, 0.0, 0.0, 0.0, 0.0],
     [5.0, 1059.0000000040525, 0.0, 3480.7, -3480.7, 1.0, 10589.7, 1.0, 10589.7, 1059.0, 0.0, 0.0, 0.0, 0.0, 0.0, 0.0, 0.0, 0.0, 0.0, 0.0, 0.0, 0.0, 0.0, 0.0, 0.0],
     [5.0, 2864.0000000136306, 0.0, 1882.7, -1882.7, 1.0, 5728.1, 1.0, 5728.1, 2864.0, 0.0, 0.0, 0.0, 0.0, 0.0, 0.0, 0.0, 0.0, 0.0, 0.0, 0.0, 0.0, 0.0, 0.0, 0.0],
     [7.0, 3692.5000000035693, 0.0, 2427.3, -2427.3, 1.0, 7385.0, 1.0, 7385.0, 3692.5, 0.0, 0.0, 0.0, 0.0, 0.0, 0.0, 0.0, 0.0, 0.0, 0.0, 0.0, 0.0, 0.0, 0.0, 0.0],
     [7.0, 311.2000000136308, 0.0, 204.6, -204.6, 1.0, 622.4, 1.0, 622.4, 311.2, 0.0, 0.0, 0.0, 0.0, 0.0, 0.0, 0.0, 0.0, 0.0, 0.0, 0.0, 0.0, 0.0, 0.0, 0.0],
     [1.0, 0.0, 0.0, 550.6, -550.6, 1.0, 1675.0, 0.0, 1675.0, 167.5, 0.0, 0.0, 0.0, 0.0, 0.0, 0.0, 0.0, 0.0, 0.0, 0.0, 0.0, 0.0, 0.0, 0.0, 0.0],
     [3.0, 0.0, 0.0, 737.0, -737.0, 1.0, 2242.2, 0.0, 2242.2, 224.2, 0.0, 0.0, 0.0, 0.0, 0.0, 0.0, 0.0, 0.0, 0.0, 0.0, 0.0, 0.0, 0.0, 0.0, 0.0],
     [4.0, 0.0, 0.0, 2869.5, -2869.5, 1.0, 8730.3, 0.0, 8730.3, 873.0, 0.0, 0.0, 0.0, 0.0, 0.0, 0.0, 0.0, 0.0, 0.0, 0.0, 0.0, 0.0, 0.0, 0.0, 0.0],
     [6.0, 0.0, 0.0, 32.8, -32.8, 1.0, 99.8, 0.0, 99.8, 10.0, 0.0, 0.0, 0.0, 0.0, 0.0, 0.0, 0.0, 0.0, 0.0, 0.0, 0.0, 0.0, 0.0, 0.0, 0.0],
     [7.0, 0.0, 0.0, 1170.8, -1170.8, 1.0, 3562.2, 0.0, 3562.2, 356.2, 0.0, 0.0, 0.0, 0.0, 0.0, 0.0, 0.0, 0.0, 0.0, 0.0, 0.0, 0.0, 0.0, 0.0, 0.0],
     [1.0, 0.0, 0.0, 0.0, 0.0, 1.0, 250.0, 1.0, 0.0, -2395.4063211879507, 0.0, 0.0, 0.0, 0.0, 0.0, 0.0, 0.0, 0.0, 0.0, 0.0, 0.0, 0.0, 0.0, 0.0, 0.0],
     [2.0, 0.0, 0.0, 0.0, 0.0, 1.0, 250.0, 1.0, 0.0, -2579.6446178615906, 0.0, 0.0, 0.0, 0.0, 0.0, 0.0, 0.0, 0.0, 0.0, 0.0, 0.0, 0.0, 0.0, 0.0, 0.0],
     [3.0, 0.0, 0.0, 0.0, 0.0, 1.0, 250.0, 1.0, 0.0, -54.10900166224809, 0.0, 0.0, 0.0, 0.0, 0.0, 0.0, 0.0, 0.0, 0.0, 0.0, 0.0, 0.0, 0.0, 0.0, 0.0],
     [4.0, 0.0, 0.0, 0.0, 0.0, 1.0, 250.0, 1.0, 0.0, -699.718877611878, 0.0, 0.0, 0.0, 0.0, 0.0, 0.0, 0.0, 0.0, 0.0, 0.0, 0.0, 0.0, 0.0, 0.0, 0.0],
     [5.0, 0.0, 0.0, 0.0, 0.0, 1.0, 250.0, 1.0, 0.0, -1309.376435783016, 0.0, 0.0, 0.0, 0.0, 0.0, 0.0, 0.0, 0.0, 0.0, 0.0, 0.0, 0.0, 0.0, 0.0, 0.0],
     [6.0, 0.0, 0.0, 0.0, 0.0, 1.0, 250.0, 1.0, 0.0, -77.44047661143543, 0.0, 0.0, 0.0, 0.0, 0.0, 0.0, 0.0, 0.0, 0.0, 0.0, 0.0, 0.0, 0.0, 0.0, 0.0],
     [7.0, 0.0, 0.0, 0.0, 0.0, 1.0, 250.0, 1.0, 0.0, -883.7492084783064, 0.0, 0.0, 0.0, 0.0, 0.0, 0.0, 0.0, 0.0, 0.0, 0.0, 0.0, 0.0, 0.0, 0.0, 0.0],
     [8.0, 0.0, 0.0, 0.0, 0.0, 1.0, 250.0, 1.0, 0.0, -18.863382820365487, 0.0, 0.0, 0.0, 0.0, 0.0, 0.0, 0.0, 0.0, 0.0, 0.0, 0.0, 0.0, 0.0, 0.0, 0.0]
    ])

    ppc["branch"] = array([
     [5.0, 6.0, 0.0042376, 0.0358982, 2.483257, 2168.0, 2168.0, 2168.0, 0.0, 0.0, 1.0, -360.0, 360.0],
     [4.0, 5.0, 0.0024809, 0.0210167, 13.0845006, 6504.0, 6504.0, 6504.0, 0.0, 0.0, 1.0, -360.0, 360.0],
     [4.0, 6.0, 0.00597922, 0.05065251, 3.50388768, 2168.0, 2168.0, 2168.0, 0.0, 0.0, 1.0, -360.0, 360.0],
     [1.0, 2.0, 0.006158677, 0.05217279, 3.6090528, 2168.0, 2168.0, 2168.0, 0.0, 0.0, 1.0, -360.0, 360.0],
     [2.0, 7.0, 0.006215203, 0.052651649, 3.6421779, 2168.0, 2168.0, 2168.0, 0.0, 0.0, 1.0, -360.0, 360.0],
     [1.0, 5.0, 0.00585052, 0.04956227, 3.42847, 2168.0, 2168.0, 2168.0, 0.0, 0.0, 1.0, -360.0, 360.0],
     [4.0, 8.0, 0.0063891224, 0.0541249945, 3.7440965856, 2168.0, 2168.0, 2168.0, 0.0, 0.0, 1.0, -360.0, 360.0],
     [6.0, 7.0, 0.005946527, 0.05037558, 3.484730861, 2168.0, 2168.0, 2168.0, 0.0, 0.0, 1.0, -360.0, 360.0],
     [2.0, 5.0, 0.001472827, 0.012476948, 7.76783579, 6504.0, 6504.0, 6504.0, 0.0, 0.0, 1.0, -360.0, 360.0],
     [1.0, 4.0, 0.00787911, 0.06674734, 4.617247, 2168.0, 2168.0, 2168.0, 0.0, 0.0, 1.0, -360.0, 360.0],
     [3.0, 4.0, 0.00439238, 0.037209735, 2.573983474, 2168.0, 2168.0, 2168.0, 0.0, 0.0, 1.0, -360.0, 360.0],
     [5.0, 7.0, 0.00496783, 0.04208459, 2.91120165, 2168.0, 2168.0, 2168.0, 0.0, 0.0, 1.0, -360.0, 360.0],
     [1.0, 3.0, 0.004216212, 0.03571734, 5.55918, 3252.0, 3252.0, 3252.0, 0.0, 0.0, 1.0, -360.0, 360.0]
    ])

    ppc["gencost"] = array([
     [2.0, 0.0, 0.0, 3.0, 0.0, 35.0, 0.0],
     [2.0, 0.0, 0.0, 3.0, 0.0, 19.0, 0.0],
     [2.0, 0.0, 0.0, 3.0, 0.0, 8.0, 0.0],
     [2.0, 0.0, 0.0, 3.0, 0.0, 56.5, 0.0],
     [2.0, 0.0, 0.0, 3.0, 0.0, 19.0, 0.0],
     [2.0, 0.0, 0.0, 3.0, 0.0, 8.0, 0.0],
     [2.0, 0.0, 0.0, 3.0, 0.0, 57.03, 0.0],
     [2.0, 0.0, 0.0, 3.0, 0.0, 19.0, 0.0],
     [2.0, 0.0, 0.0, 3.0, 0.0, 57.03, 0.0],
     [2.0, 0.0, 0.0, 3.0, 0.0, 45.0, 0.0],
     [2.0, 0.0, 0.0, 3.0, 0.0, 19.0, 0.0],
     [2.0, 0.0, 0.0, 3.0, 0.0, 50.0, 0.0],
     [2.0, 0.0, 0.0, 3.0, 0.0, 19.0, 0.0],
     [2.0, 0.0, 0.0, 3.0, 0.0, 0.01, 0.0],
     [2.0, 0.0, 0.0, 3.0, 0.0, 0.01, 0.0],
     [2.0, 0.0, 0.0, 3.0, 0.0, 0.01, 0.0],
     [2.0, 0.0, 0.0, 3.0, 0.0, 0.01, 0.0],
     [2.0, 0.0, 0.0, 3.0, 0.0, 0.01, 0.0],
     [2.0, 0.0, 0.0, 3.0, 0.0, 60.0, 0.0],
     [2.0, 0.0, 0.0, 3.0, 0.0, 60.0, 0.0],
     [2.0, 0.0, 0.0, 3.0, 0.0, 60.0, 0.0],
     [2.0, 0.0, 0.0, 3.0, 0.0, 60.0, 0.0],
     [2.0, 0.0, 0.0, 3.0, 0.0, 60.0, 0.0],
     [2.0, 0.0, 0.0, 3.0, 0.0, 60.0, 0.0],
     [2.0, 0.0, 0.0, 3.0, 0.0, 60.0, 0.0],
     [2.0, 0.0, 0.0, 3.0, 0.0, 60.0, 0.0]
    ])

    return ppc
